%nosave
%mem=2500MB
%NProc=4
# opt HF/3-21g

5-Fluorouracil_2W_50_PM6_HF 

1 1
C        1.987591    -0.907006     -0.016765
N        2.678680    0.314349     0.006362
C        1.917751    1.496316     0.025726
C        0.555846    1.403499     0.018837
N        0.652055    -1.036502     -0.020903
H        2.471250    2.451620     0.045307
H        3.707609    0.341713     0.008432
F        -0.192509    2.500167     0.035594
C        -0.149646    0.114969     -0.009051
O        -1.381971    -0.021599     -0.023259
H        -2.874039    1.009770     0.235726
O        2.813679    -1.960811     -0.033318
H        2.301201    -2.849551     -0.058714
O        -2.869038    -1.894028     0.006477
H        -2.869306    -2.141443     0.967447
H        -1.869034    -1.726957     -0.193502
O        -3.712568    0.485648     0.001743
H        -3.835181    0.671035     -0.964268
H        -3.285148    -0.722975     0.015379



